TEST.fds
Generated by PyroSim - Version 2018.2.0730
Apr 24, 2019 7:39:10 AM

&HEAD CHID='TEST'/
&TIME T_END=3000.0/
&DUMP RENDER_FILE='TEST.ge1', COLUMN_DUMP_LIMIT=.TRUE., DT_RESTART=300.0, DT_SL3D=0.25/
&MISC TMPA=25.0/

&MESH ID='Mesh01-a', IJK=17,12,17, XB=-0.5,0.35,-1.5,-0.9,0.0,0.85/
&MESH ID='Mesh01-b', IJK=17,12,13, XB=-0.5,0.35,-1.5,-0.9,0.85,1.5/
&MESH ID='Mesh01-c', IJK=17,12,12, XB=-0.5,0.35,-1.5,-0.9,1.5,2.1/
&MESH ID='Mesh01-d', IJK=17,12,18, XB=-0.5,0.35,-1.5,-0.9,2.1,3.0/
&MESH ID='Mesh01-e', IJK=17,21,17, XB=-0.5,0.35,-0.9,0.15,0.0,0.85/
&MESH ID='Mesh01-f', IJK=17,21,13, XB=-0.5,0.35,-0.9,0.15,0.85,1.5/
&MESH ID='Mesh01-g', IJK=17,21,12, XB=-0.5,0.35,-0.9,0.15,1.5,2.1/
&MESH ID='Mesh01-h', IJK=17,21,18, XB=-0.5,0.35,-0.9,0.15,2.1,3.0/
&MESH ID='Mesh01-i', IJK=17,18,17, XB=-0.5,0.35,0.15,1.05,0.0,0.85/
&MESH ID='Mesh01-j', IJK=17,18,13, XB=-0.5,0.35,0.15,1.05,0.85,1.5/
&MESH ID='Mesh01-k', IJK=17,18,12, XB=-0.5,0.35,0.15,1.05,1.5,2.1/
&MESH ID='Mesh01-l', IJK=17,18,18, XB=-0.5,0.35,0.15,1.05,2.1,3.0/
&MESH ID='Mesh01-m', IJK=17,49,17, XB=-0.5,0.35,1.05,3.5,0.0,0.85/
&MESH ID='Mesh01-n', IJK=17,49,13, XB=-0.5,0.35,1.05,3.5,0.85,1.5/
&MESH ID='Mesh01-o', IJK=17,49,12, XB=-0.5,0.35,1.05,3.5,1.5,2.1/
&MESH ID='Mesh01-p', IJK=17,49,18, XB=-0.5,0.35,1.05,3.5,2.1,3.0/
&MESH ID='Mesh01-q', IJK=19,12,17, XB=0.35,1.3,-1.5,-0.9,0.0,0.85/
&MESH ID='Mesh01-r', IJK=19,12,13, XB=0.35,1.3,-1.5,-0.9,0.85,1.5/
&MESH ID='Mesh01-s', IJK=19,12,12, XB=0.35,1.3,-1.5,-0.9,1.5,2.1/
&MESH ID='Mesh01-t', IJK=19,12,18, XB=0.35,1.3,-1.5,-0.9,2.1,3.0/
&MESH ID='Mesh01-u', IJK=19,21,17, XB=0.35,1.3,-0.9,0.15,0.0,0.85/
&MESH ID='Mesh01-v', IJK=19,21,13, XB=0.35,1.3,-0.9,0.15,0.85,1.5/
&MESH ID='Mesh01-w', IJK=19,21,12, XB=0.35,1.3,-0.9,0.15,1.5,2.1/
&MESH ID='Mesh01-x', IJK=19,21,18, XB=0.35,1.3,-0.9,0.15,2.1,3.0/
&MESH ID='Mesh01-y', IJK=19,18,17, XB=0.35,1.3,0.15,1.05,0.0,0.85/
&MESH ID='Mesh01-z', IJK=19,18,13, XB=0.35,1.3,0.15,1.05,0.85,1.5/
&MESH ID='Mesh01-{', IJK=19,18,12, XB=0.35,1.3,0.15,1.05,1.5,2.1/
&MESH ID='Mesh01-|', IJK=19,18,18, XB=0.35,1.3,0.15,1.05,2.1,3.0/
&MESH ID='Mesh01-}', IJK=19,49,17, XB=0.35,1.3,1.05,3.5,0.0,0.85/
&MESH ID='Mesh01-~', IJK=19,49,13, XB=0.35,1.3,1.05,3.5,0.85,1.5/
&MESH ID='Mesh01-', IJK=19,49,12, XB=0.35,1.3,1.05,3.5,1.5,2.1/
&MESH ID='Mesh01-', IJK=19,49,18, XB=0.35,1.3,1.05,3.5,2.1,3.0/
&MESH ID='Mesh01-', IJK=20,12,17, XB=1.3,2.3,-1.5,-0.9,0.0,0.85/
&MESH ID='Mesh01-', IJK=20,12,13, XB=1.3,2.3,-1.5,-0.9,0.85,1.5/
&MESH ID='Mesh01-', IJK=20,12,12, XB=1.3,2.3,-1.5,-0.9,1.5,2.1/
&MESH ID='Mesh01-', IJK=20,12,18, XB=1.3,2.3,-1.5,-0.9,2.1,3.0/
&MESH ID='Mesh01-', IJK=20,21,17, XB=1.3,2.3,-0.9,0.15,0.0,0.85/
&MESH ID='Mesh01-', IJK=20,21,13, XB=1.3,2.3,-0.9,0.15,0.85,1.5/
&MESH ID='Mesh01-', IJK=20,21,12, XB=1.3,2.3,-0.9,0.15,1.5,2.1/
&MESH ID='Mesh01-', IJK=20,21,18, XB=1.3,2.3,-0.9,0.15,2.1,3.0/
&MESH ID='Mesh01-', IJK=20,18,17, XB=1.3,2.3,0.15,1.05,0.0,0.85/
&MESH ID='Mesh01-', IJK=20,18,13, XB=1.3,2.3,0.15,1.05,0.85,1.5/
&MESH ID='Mesh01-', IJK=20,18,12, XB=1.3,2.3,0.15,1.05,1.5,2.1/
&MESH ID='Mesh01-', IJK=20,18,18, XB=1.3,2.3,0.15,1.05,2.1,3.0/
&MESH ID='Mesh01-', IJK=20,49,17, XB=1.3,2.3,1.05,3.5,0.0,0.85/
&MESH ID='Mesh01-', IJK=20,49,13, XB=1.3,2.3,1.05,3.5,0.85,1.5/
&MESH ID='Mesh01-', IJK=20,49,12, XB=1.3,2.3,1.05,3.5,1.5,2.1/
&MESH ID='Mesh01-', IJK=20,49,18, XB=1.3,2.3,1.05,3.5,2.1,3.0/
&MESH ID='Mesh01-', IJK=26,12,17, XB=2.3,3.6,-1.5,-0.9,0.0,0.85/
&MESH ID='Mesh01-', IJK=26,12,13, XB=2.3,3.6,-1.5,-0.9,0.85,1.5/
&MESH ID='Mesh01-', IJK=26,12,12, XB=2.3,3.6,-1.5,-0.9,1.5,2.1/
&MESH ID='Mesh01-', IJK=26,12,18, XB=2.3,3.6,-1.5,-0.9,2.1,3.0/
&MESH ID='Mesh01-', IJK=26,21,17, XB=2.3,3.6,-0.9,0.15,0.0,0.85/
&MESH ID='Mesh01-', IJK=26,21,13, XB=2.3,3.6,-0.9,0.15,0.85,1.5/
&MESH ID='Mesh01-', IJK=26,21,12, XB=2.3,3.6,-0.9,0.15,1.5,2.1/
&MESH ID='Mesh01-', IJK=26,21,18, XB=2.3,3.6,-0.9,0.15,2.1,3.0/
&MESH ID='Mesh01-', IJK=26,18,17, XB=2.3,3.6,0.15,1.05,0.0,0.85/
&MESH ID='Mesh01-', IJK=26,18,13, XB=2.3,3.6,0.15,1.05,0.85,1.5/
&MESH ID='Mesh01-', IJK=26,18,12, XB=2.3,3.6,0.15,1.05,1.5,2.1/
&MESH ID='Mesh01-', IJK=26,18,18, XB=2.3,3.6,0.15,1.05,2.1,3.0/
&MESH ID='Mesh01-', IJK=26,49,17, XB=2.3,3.6,1.05,3.5,0.0,0.85/
&MESH ID='Mesh01-', IJK=26,49,13, XB=2.3,3.6,1.05,3.5,0.85,1.5/
&MESH ID='Mesh01-', IJK=26,49,12, XB=2.3,3.6,1.05,3.5,1.5,2.1/
&MESH ID='Mesh01- ', IJK=26,49,18, XB=2.3,3.6,1.05,3.5,2.1,3.0/
&MESH ID='Mesh01-¡', IJK=18,12,17, XB=3.6,4.5,-1.5,-0.9,0.0,0.85/
&MESH ID='Mesh01-¢', IJK=18,12,13, XB=3.6,4.5,-1.5,-0.9,0.85,1.5/
&MESH ID='Mesh01-£', IJK=18,12,12, XB=3.6,4.5,-1.5,-0.9,1.5,2.1/
&MESH ID='Mesh01-¤', IJK=18,12,18, XB=3.6,4.5,-1.5,-0.9,2.1,3.0/
&MESH ID='Mesh01-¥', IJK=18,21,17, XB=3.6,4.5,-0.9,0.15,0.0,0.85/
&MESH ID='Mesh01-¦', IJK=18,21,13, XB=3.6,4.5,-0.9,0.15,0.85,1.5/
&MESH ID='Mesh01-§', IJK=18,21,12, XB=3.6,4.5,-0.9,0.15,1.5,2.1/
&MESH ID='Mesh01-¨', IJK=18,21,18, XB=3.6,4.5,-0.9,0.15,2.1,3.0/
&MESH ID='Mesh01-©', IJK=18,18,17, XB=3.6,4.5,0.15,1.05,0.0,0.85/
&MESH ID='Mesh01-ª', IJK=18,18,13, XB=3.6,4.5,0.15,1.05,0.85,1.5/
&MESH ID='Mesh01-«', IJK=18,18,12, XB=3.6,4.5,0.15,1.05,1.5,2.1/
&MESH ID='Mesh01-¬', IJK=18,18,18, XB=3.6,4.5,0.15,1.05,2.1,3.0/
&MESH ID='Mesh01-­', IJK=18,49,17, XB=3.6,4.5,1.05,3.5,0.0,0.85/
&MESH ID='Mesh01-®', IJK=18,49,13, XB=3.6,4.5,1.05,3.5,0.85,1.5/
&MESH ID='Mesh01-¯', IJK=18,49,12, XB=3.6,4.5,1.05,3.5,1.5,2.1/
&MESH ID='Mesh01-°', IJK=18,49,18, XB=3.6,4.5,1.05,3.5,2.1,3.0/


&REAC ID='WOOD',
      FUEL='REAC_FUEL',
      C=3.4,
      H=6.2,
      O=2.5,
      AUTO_IGNITION_TEMPERATURE=0.0,
      SOOT_H_FRACTION=0.0,
      SOOT_YIELD=0.03,
      HEAT_OF_COMBUSTION=1.8E4/

&PROP ID='THCP4 props', BEAD_DIAMETER=6.0E-3/
&PROP ID='THCP5 props', BEAD_DIAMETER=6.0E-3/
&PROP ID='THCP6 props', BEAD_DIAMETER=6.0E-3/
&PROP ID='THCP7 props', BEAD_DIAMETER=6.0E-3/
&PROP ID='THCP8 props', BEAD_DIAMETER=6.0E-3/
&PROP ID='THCP9 props', BEAD_DIAMETER=6.0E-3/
&PROP ID='THCP10 props', BEAD_DIAMETER=6.0E-3/
&PROP ID='THCP11 props', BEAD_DIAMETER=6.0E-3/
&DEVC ID='THCP4', PROP_ID='THCP4 props', QUANTITY='THERMOCOUPLE', XYZ=1.5,1.5,2.15/
&DEVC ID='THCP5', PROP_ID='THCP5 props', QUANTITY='THERMOCOUPLE', XYZ=1.5,0.5,2.15/
&DEVC ID='THCP6', PROP_ID='THCP6 props', QUANTITY='THERMOCOUPLE', XYZ=1.5,2.5,2.15/
&DEVC ID='THCP7', PROP_ID='THCP7 props', QUANTITY='THERMOCOUPLE', XYZ=1.5,2.85,2.0, ORIENTATION=0.0,-1.0,0.0/
&DEVC ID='THCP8', PROP_ID='THCP8 props', QUANTITY='THERMOCOUPLE', XYZ=1.5,2.85,1.55, ORIENTATION=0.0,-1.0,0.0/
&DEVC ID='THCP9', PROP_ID='THCP9 props', QUANTITY='THERMOCOUPLE', XYZ=1.5,2.85,1.1, ORIENTATION=0.0,-1.0,0.0/
&DEVC ID='THCP10', PROP_ID='THCP10 props', QUANTITY='THERMOCOUPLE', XYZ=1.5,2.85,0.65, ORIENTATION=0.0,-1.0,0.0/
&DEVC ID='THCP11', PROP_ID='THCP11 props', QUANTITY='THERMOCOUPLE', XYZ=1.5,2.85,0.2, ORIENTATION=0.0,-1.0,0.0/
&DEVC ID='FLUX', QUANTITY='RADIATIVE HEAT FLUX GAS', XYZ=1.0,0.0,1.75, ORIENTATION=0.0,1.0,0.0/
&DEVC ID='FLUX1', QUANTITY='RADIATIVE HEAT FLUX GAS', XYZ=1.0,0.0,1.25, ORIENTATION=0.0,1.0,0.0/
&DEVC ID='FLUX2', QUANTITY='RADIATIVE HEAT FLUX GAS', XYZ=1.0,0.0,0.75, ORIENTATION=0.0,1.0,0.0/
&DEVC ID='FLUX3', QUANTITY='RADIATIVE HEAT FLUX GAS', XYZ=1.0,0.0,0.25, ORIENTATION=0.0,1.0,0.0/
&DEVC ID='FLUX4', QUANTITY='RADIATIVE HEAT FLUX GAS', XYZ=3.2,2.3,1.93, ORIENTATION=-1.0,0.0,0.0/
&DEVC ID='FLUX5', QUANTITY='RADIATIVE HEAT FLUX GAS', XYZ=3.2,2.3,1.73, ORIENTATION=-1.0,0.0,0.0/
&DEVC ID='FLUX6', QUANTITY='RADIATIVE HEAT FLUX GAS', XYZ=3.2,2.3,1.53, ORIENTATION=-1.0,0.0,0.0/
&DEVC ID='FLUX7', QUANTITY='RADIATIVE HEAT FLUX GAS', XYZ=4.0,2.3,1.53, ORIENTATION=-1.0,0.0,0.0/
&DEVC ID='FLUX8', QUANTITY='RADIATIVE HEAT FLUX GAS', XYZ=4.0,2.3,1.73, ORIENTATION=-1.0,0.0,0.0/
&DEVC ID='FLUX9', QUANTITY='RADIATIVE HEAT FLUX GAS', XYZ=4.0,2.3,1.93, ORIENTATION=-1.0,0.0,0.0/
&DEVC ID='FLUX10', QUANTITY='RADIATIVE HEAT FLUX GAS', XYZ=1.2,-1.0,0.25, ORIENTATION=0.0,1.0,0.0/
&DEVC ID='FLUX11', QUANTITY='RADIATIVE HEAT FLUX GAS', XYZ=1.2,-1.0,0.75, ORIENTATION=0.0,1.0,0.0/
&DEVC ID='FLUX12', QUANTITY='RADIATIVE HEAT FLUX GAS', XYZ=1.2,-1.0,1.25, ORIENTATION=0.0,1.0,0.0/
&DEVC ID='FLUX16', QUANTITY='RADIATIVE HEAT FLUX GAS', XYZ=1.2,-1.0,1.75, ORIENTATION=0.0,1.0,0.0/
&DEVC ID='TIMER->OUT', QUANTITY='TIME', XYZ=-0.5,-1.5,0.0, SETPOINT=288.0, INITIAL_STATE=.TRUE./

&MATL ID='WOOD_MATL',
      SPECIFIC_HEAT=1.3,
      CONDUCTIVITY=0.14,
      DENSITY=515.0,
      HEAT_OF_COMBUSTION=2.38E4/
&MATL ID='STEEL_MATL',
      SPECIFIC_HEAT=0.6,
      CONDUCTIVITY=45.0,
      DENSITY=7850.0,
      EMISSIVITY=0.42/
&MATL ID='CORRUGATEDCARDBOARD_MATL',
      SPECIFIC_HEAT=2.7,
      CONDUCTIVITY=0.42,
      DENSITY=5.4,
      HEAT_OF_COMBUSTION=1.69E4/
&MATL ID='WOOD_MATL_WALL',
      SPECIFIC_HEAT=1.3,
      CONDUCTIVITY=0.14,
      DENSITY=128.64,
      HEAT_OF_COMBUSTION=1.8E4/

&SURF ID='WOOD',
      COLOR='ORANGE',
      HRRPUA=241.5,
      RAMP_Q='WOOD_RAMP_Q',
      IGNITION_TEMPERATURE=350.0,
      BURN_AWAY=.TRUE.,
      BACKING='VOID',
      MATL_ID(1,1)='WOOD_MATL',
      MATL_MASS_FRACTION(1,1)=1.0,
      THICKNESS(1)=0.025,
      GEOMETRY='CARTESIAN',
      LENGTH=0.0,
      WIDTH=0.0/
&RAMP ID='WOOD_RAMP_Q', T=0.0, F=0.06/
&RAMP ID='WOOD_RAMP_Q', T=1.01, F=0.03/
&RAMP ID='WOOD_RAMP_Q', T=2.03, F=0.1/
&RAMP ID='WOOD_RAMP_Q', T=3.04, F=0.1/
&RAMP ID='WOOD_RAMP_Q', T=4.06, F=0.24/
&RAMP ID='WOOD_RAMP_Q', T=5.07, F=0.24/
&RAMP ID='WOOD_RAMP_Q', T=6.08, F=0.25/
&RAMP ID='WOOD_RAMP_Q', T=7.1, F=0.31/
&RAMP ID='WOOD_RAMP_Q', T=8.11, F=0.37/
&RAMP ID='WOOD_RAMP_Q', T=9.13, F=0.44/
&RAMP ID='WOOD_RAMP_Q', T=10.14, F=0.44/
&RAMP ID='WOOD_RAMP_Q', T=11.15, F=0.46/
&RAMP ID='WOOD_RAMP_Q', T=12.17, F=0.67/
&RAMP ID='WOOD_RAMP_Q', T=13.18, F=0.74/
&RAMP ID='WOOD_RAMP_Q', T=14.2, F=0.66/
&RAMP ID='WOOD_RAMP_Q', T=15.21, F=0.5/
&RAMP ID='WOOD_RAMP_Q', T=16.22, F=0.85/
&RAMP ID='WOOD_RAMP_Q', T=17.24, F=0.64/
&RAMP ID='WOOD_RAMP_Q', T=18.25, F=0.83/
&RAMP ID='WOOD_RAMP_Q', T=19.27, F=0.71/
! ... 2159 like lines cut
&SURF ID='WOOD_PARAFFIN',
      COLOR='ORANGE',
      HRRPUA=241.5,
      RAMP_Q='WOOD_PARAFFIN_RAMP_Q',
      IGNITION_TEMPERATURE=30.0,
      BURN_AWAY=.TRUE.,
      BACKING='VOID',
      MATL_ID(1,1)='WOOD_MATL',
      MATL_MASS_FRACTION(1,1)=1.0,
      THICKNESS(1)=0.025,
      GEOMETRY='CARTESIAN',
      LENGTH=0.0,
      WIDTH=0.0/
&RAMP ID='WOOD_PARAFFIN_RAMP_Q', T=0.0, F=0.06/
&RAMP ID='WOOD_PARAFFIN_RAMP_Q', T=1.01, F=0.03/
&RAMP ID='WOOD_PARAFFIN_RAMP_Q', T=2.03, F=0.1/
&RAMP ID='WOOD_PARAFFIN_RAMP_Q', T=3.04, F=0.1/
&RAMP ID='WOOD_PARAFFIN_RAMP_Q', T=4.06, F=0.24/
&RAMP ID='WOOD_PARAFFIN_RAMP_Q', T=5.07, F=0.24/
&RAMP ID='WOOD_PARAFFIN_RAMP_Q', T=6.08, F=0.25/
&RAMP ID='WOOD_PARAFFIN_RAMP_Q', T=7.1, F=0.31/
&RAMP ID='WOOD_PARAFFIN_RAMP_Q', T=8.11, F=0.37/
&RAMP ID='WOOD_PARAFFIN_RAMP_Q', T=9.13, F=0.44/
&RAMP ID='WOOD_PARAFFIN_RAMP_Q', T=10.14, F=0.44/
&RAMP ID='WOOD_PARAFFIN_RAMP_Q', T=11.15, F=0.46/
&RAMP ID='WOOD_PARAFFIN_RAMP_Q', T=12.17, F=0.67/
&RAMP ID='WOOD_PARAFFIN_RAMP_Q', T=13.18, F=0.74/
&RAMP ID='WOOD_PARAFFIN_RAMP_Q', T=14.2, F=0.66/
&RAMP ID='WOOD_PARAFFIN_RAMP_Q', T=15.21, F=0.5/
&RAMP ID='WOOD_PARAFFIN_RAMP_Q', T=16.22, F=0.85/
&RAMP ID='WOOD_PARAFFIN_RAMP_Q', T=17.24, F=0.64/
&RAMP ID='WOOD_PARAFFIN_RAMP_Q', T=18.25, F=0.83/
&RAMP ID='WOOD_PARAFFIN_RAMP_Q', T=19.27, F=0.71/
! ... 2159 like lines cut
&SURF ID='STEEL_0.5mm',
      COLOR='GRAY 55',
      MATL_ID(1,1)='STEEL_MATL',
      MATL_MASS_FRACTION(1,1)=1.0,
      THICKNESS(1)=2.5E-4,
      GEOMETRY='CARTESIAN',
      LENGTH=0.0,
      WIDTH=0.0/
&SURF ID='CARDBOARD_1.5mm',
      RGB=140,88,41,
      HRRPUA=274.27,
      RAMP_Q='CARDBOARD_1.5mm_RAMP_Q',
      IGNITION_TEMPERATURE=293.0,
      BURN_AWAY=.TRUE.,
      BACKING='VOID',
      MATL_ID(1,1)='CORRUGATEDCARDBOARD_MATL',
      MATL_MASS_FRACTION(1,1)=1.0,
      THICKNESS(1)=0.025,
      GEOMETRY='CARTESIAN',
      LENGTH=0.0,
      WIDTH=0.0/
&RAMP ID='CARDBOARD_1.5mm_RAMP_Q', T=0.0, F=0.11/
&RAMP ID='CARDBOARD_1.5mm_RAMP_Q', T=1.01, F=0.27/
&RAMP ID='CARDBOARD_1.5mm_RAMP_Q', T=2.03, F=0.56/
&RAMP ID='CARDBOARD_1.5mm_RAMP_Q', T=3.04, F=0.54/
&RAMP ID='CARDBOARD_1.5mm_RAMP_Q', T=4.05, F=0.74/
&RAMP ID='CARDBOARD_1.5mm_RAMP_Q', T=5.07, F=0.72/
&RAMP ID='CARDBOARD_1.5mm_RAMP_Q', T=6.08, F=0.96/
&RAMP ID='CARDBOARD_1.5mm_RAMP_Q', T=7.1, F=0.89/
&RAMP ID='CARDBOARD_1.5mm_RAMP_Q', T=8.11, F=0.94/
&RAMP ID='CARDBOARD_1.5mm_RAMP_Q', T=9.12, F=0.85/
&RAMP ID='CARDBOARD_1.5mm_RAMP_Q', T=10.14, F=1.0/
&RAMP ID='CARDBOARD_1.5mm_RAMP_Q', T=11.15, F=0.86/
&RAMP ID='CARDBOARD_1.5mm_RAMP_Q', T=12.16, F=0.89/
&RAMP ID='CARDBOARD_1.5mm_RAMP_Q', T=13.18, F=0.82/
&RAMP ID='CARDBOARD_1.5mm_RAMP_Q', T=14.19, F=0.95/
&RAMP ID='CARDBOARD_1.5mm_RAMP_Q', T=15.21, F=0.77/
&RAMP ID='CARDBOARD_1.5mm_RAMP_Q', T=16.22, F=0.85/
&RAMP ID='CARDBOARD_1.5mm_RAMP_Q', T=17.24, F=0.81/
&RAMP ID='CARDBOARD_1.5mm_RAMP_Q', T=18.25, F=0.82/
&RAMP ID='CARDBOARD_1.5mm_RAMP_Q', T=19.26, F=0.59/
! ... 37 like lines cut
&SURF ID='Ignitor',
      COLOR='RED',
      HRRPUA=347.76,
      TAU_Q=-1.0/
&SURF ID='WOOD_WALL',
      COLOR='ORANGE',
      HRRPUA=241.5,
      RAMP_Q='WOOD_WALL_RAMP_Q',
      IGNITION_TEMPERATURE=350.0,
      BURN_AWAY=.TRUE.,
      BACKING='VOID',
      MATL_ID(1,1)='WOOD_MATL_WALL',
      MATL_MASS_FRACTION(1,1)=1.0,
      THICKNESS(1)=0.025,
      GEOMETRY='CARTESIAN',
      LENGTH=0.0,
      WIDTH=0.0/
&RAMP ID='WOOD_WALL_RAMP_Q', T=0.0, F=0.06/
&RAMP ID='WOOD_WALL_RAMP_Q', T=1.01, F=0.03/
&RAMP ID='WOOD_WALL_RAMP_Q', T=2.03, F=0.1/
&RAMP ID='WOOD_WALL_RAMP_Q', T=3.04, F=0.1/
&RAMP ID='WOOD_WALL_RAMP_Q', T=4.06, F=0.24/
&RAMP ID='WOOD_WALL_RAMP_Q', T=5.07, F=0.24/
&RAMP ID='WOOD_WALL_RAMP_Q', T=6.08, F=0.25/
&RAMP ID='WOOD_WALL_RAMP_Q', T=7.1, F=0.31/
&RAMP ID='WOOD_WALL_RAMP_Q', T=8.11, F=0.37/
&RAMP ID='WOOD_WALL_RAMP_Q', T=9.13, F=0.44/
&RAMP ID='WOOD_WALL_RAMP_Q', T=10.14, F=0.44/
&RAMP ID='WOOD_WALL_RAMP_Q', T=11.15, F=0.46/
&RAMP ID='WOOD_WALL_RAMP_Q', T=12.17, F=0.67/
&RAMP ID='WOOD_WALL_RAMP_Q', T=13.18, F=0.74/
&RAMP ID='WOOD_WALL_RAMP_Q', T=14.2, F=0.66/
&RAMP ID='WOOD_WALL_RAMP_Q', T=15.21, F=0.5/
&RAMP ID='WOOD_WALL_RAMP_Q', T=16.22, F=0.85/
&RAMP ID='WOOD_WALL_RAMP_Q', T=17.24, F=0.64/
&RAMP ID='WOOD_WALL_RAMP_Q', T=18.25, F=0.83/
&RAMP ID='WOOD_WALL_RAMP_Q', T=19.27, F=0.71/
! ... 2159 like lines cut

&OBST ID='Wood Piece', XB=0.1,0.15,0.1,1.0,0.05,0.1, THICKEN=.TRUE., BULK_DENSITY=515.0, SURF_ID='WOOD'/ 
&OBST ID='Wood Piece', XB=0.3,0.35,0.1,1.0,0.05,0.1, THICKEN=.TRUE., BULK_DENSITY=515.0, SURF_ID='WOOD'/ 
&OBST ID='Wood Piece', XB=0.5,0.55,0.1,1.0,0.05,0.1, THICKEN=.TRUE., BULK_DENSITY=515.0, SURF_ID='WOOD'/ 
&OBST ID='Wood Piece', XB=0.7,0.75,0.1,1.0,0.05,0.1, THICKEN=.TRUE., BULK_DENSITY=515.0, SURF_ID='WOOD'/ 
&OBST ID='Wood Piece', XB=0.9,0.95,0.1,1.0,0.05,0.1, THICKEN=.TRUE., BULK_DENSITY=515.0, SURF_ID='WOOD'/ 
&OBST ID='Wood Piece', XB=0.1,1.0,0.1,0.15,0.1,0.15, THICKEN=.TRUE., BULK_DENSITY=515.0, SURF_ID='WOOD'/ 
&OBST ID='Wood Piece', XB=0.1,1.0,0.5,0.55,0.1,0.15, THICKEN=.TRUE., BULK_DENSITY=515.0, SURF_ID='WOOD'/ 
&OBST ID='Wood Piece', XB=0.1,1.0,0.9,0.95,0.1,0.15, THICKEN=.TRUE., BULK_DENSITY=515.0, SURF_ID='WOOD'/ 
&OBST ID='Wood Piece', XB=0.1,0.15,0.1,1.0,0.15,0.2, THICKEN=.TRUE., BULK_DENSITY=515.0, SURF_ID='WOOD'/ 
&OBST ID='Wood Piece', XB=0.5,0.55,0.1,1.0,0.15,0.2, THICKEN=.TRUE., BULK_DENSITY=515.0, SURF_ID='WOOD'/ 
&OBST ID='Wood Piece', XB=0.9,0.95,0.1,1.0,0.15,0.2, THICKEN=.TRUE., BULK_DENSITY=515.0, SURF_ID='WOOD'/ 
&OBST ID='Wood Piece', XB=0.1,1.0,0.1,0.15,0.2,0.25, THICKEN=.TRUE., BULK_DENSITY=515.0, SURF_ID='WOOD'/ 
&OBST ID='Wood Piece', XB=0.1,1.0,0.3,0.35,0.2,0.25, THICKEN=.TRUE., BULK_DENSITY=515.0, SURF_ID='WOOD'/ 
&OBST ID='Wood Piece', XB=0.1,1.0,0.5,0.55,0.2,0.25, THICKEN=.TRUE., BULK_DENSITY=515.0, SURF_ID='WOOD'/ 
&OBST ID='Wood Piece', XB=0.1,1.0,0.7,0.75,0.2,0.25, THICKEN=.TRUE., BULK_DENSITY=515.0, SURF_ID='WOOD'/ 
&OBST ID='Wood Piece', XB=0.1,1.0,0.9,0.95,0.2,0.25, THICKEN=.TRUE., BULK_DENSITY=515.0, SURF_ID='WOOD'/ 
&OBST ID='Wood Piece', XB=0.1,0.15,0.1,1.0,0.25,0.3, THICKEN=.TRUE., BULK_DENSITY=515.0, SURF_ID='WOOD'/ 
&OBST ID='Wood Piece', XB=0.3,0.35,0.1,1.0,0.25,0.3, THICKEN=.TRUE., BULK_DENSITY=515.0, SURF_ID='WOOD'/ 
&OBST ID='Wood Piece', XB=0.5,0.55,0.1,1.0,0.25,0.3, THICKEN=.TRUE., BULK_DENSITY=515.0, SURF_ID='WOOD'/ 
&OBST ID='Wood Piece', XB=0.7,0.75,0.1,1.0,0.25,0.3, THICKEN=.TRUE., BULK_DENSITY=515.0, SURF_ID='WOOD'/ 
! ... 295 like lines cut
&OBST ID='Par wood 1-2', XB=1.52,1.95,0.3,0.35,0.3,0.35, THICKEN=.TRUE., BULK_DENSITY=515.0, SURF_ID='WOOD'/ 
&OBST ID='Par wood 1-2', XB=1.52,1.95,0.3,0.35,0.4,0.45, THICKEN=.TRUE., BULK_DENSITY=515.0, SURF_ID='WOOD'/ 
&OBST ID='Par wood 1-2', XB=1.52,1.95,0.3,0.35,0.2,0.25, THICKEN=.TRUE., BULK_DENSITY=515.0, SURF_ID='WOOD'/ 
&OBST ID='Par wood 1-1', XB=1.05,1.52,0.3,0.35,0.3,0.35, THICKEN=.TRUE., BULK_DENSITY=515.0, SURF_ID='WOOD_PARAFFIN'/ 
&OBST ID='Par wood 1-1', XB=1.05,1.52,0.3,0.35,0.4,0.45, THICKEN=.TRUE., BULK_DENSITY=515.0, SURF_ID='WOOD_PARAFFIN'/ 
&OBST ID='Par wood 1-1', XB=1.05,1.52,0.3,0.35,0.2,0.25, THICKEN=.TRUE., BULK_DENSITY=515.0, SURF_ID='WOOD_PARAFFIN'/ 
&OBST ID='Par wood 2-1', XB=1.05,1.52,0.5,0.55,0.3,0.35, THICKEN=.TRUE., BULK_DENSITY=515.0, SURF_ID='WOOD_PARAFFIN'/ 
&OBST ID='Par wood 2-1', XB=1.05,1.52,0.5,0.55,0.4,0.45, THICKEN=.TRUE., BULK_DENSITY=515.0, SURF_ID='WOOD_PARAFFIN'/ 
&OBST ID='Par wood 2-1', XB=1.05,1.52,0.5,0.55,0.2,0.25, THICKEN=.TRUE., BULK_DENSITY=515.0, SURF_ID='WOOD_PARAFFIN'/ 
&OBST ID='Par wood 2-2', XB=1.52,1.95,0.5,0.55,0.3,0.35, THICKEN=.TRUE., BULK_DENSITY=515.0, SURF_ID='WOOD'/ 
&OBST ID='Par wood 2-2', XB=1.52,1.95,0.5,0.55,0.4,0.45, THICKEN=.TRUE., BULK_DENSITY=515.0, SURF_ID='WOOD'/ 
&OBST ID='Par wood 2-2', XB=1.52,1.95,0.5,0.55,0.2,0.25, THICKEN=.TRUE., BULK_DENSITY=515.0, SURF_ID='WOOD'/ 
&OBST ID='ROOF1', XB=-0.1,3.1,-0.1,3.1,2.3,2.35, SURF_ID='STEEL_0.5mm'/ 
&OBST ID='Shack1_C5', XB=0.05,2.95,0.05,2.95,0.0,0.05, BULK_DENSITY=5.4, SURF_ID='CARDBOARD_1.5mm'/ 
&OBST ID='Shack1_C4', XB=2.95,3.0,0.05,2.95,0.0,2.25, BULK_DENSITY=5.4, SURF_ID='CARDBOARD_1.5mm'/ 
&OBST ID='Shack1_C3', XB=0.05,2.95,2.95,3.0,0.0,2.25, BULK_DENSITY=5.4, SURF_ID='CARDBOARD_1.5mm'/ 
&OBST ID='Shack1_C2', XB=0.0,0.05,0.05,2.95,0.0,2.25, BULK_DENSITY=5.4, SURF_ID='CARDBOARD_1.5mm'/ 
&OBST ID='Shack1_C1', XB=0.05,2.95,0.0,0.05,0.0,2.25, BULK_DENSITY=5.4, SURF_ID='CARDBOARD_1.5mm'/ 
&OBST ID='CAN', XB=1.15,1.25,0.35,0.45,0.05,0.15, BULK_DENSITY=5.4, SURF_ID='STEEL_0.5mm'/ 
&OBST ID='Shack1_W1_TOP', XB=0.0,3.05,-0.05,0.0,1.5,2.3, BULK_DENSITY=128.64, SURF_ID='WOOD_WALL'/ 
&OBST ID='Shack1_W1_BOTTOM', XB=0.0,3.05,-0.05,0.0,0.0,0.6, BULK_DENSITY=128.64, SURF_ID='WOOD_WALL', DEVC_ID='TIMER->OUT'/ 
&OBST ID='Shack1_W2_TOP', XB=-0.05,0.0,-0.05,3.0,1.5,2.3, BULK_DENSITY=128.64, SURF_ID='WOOD_WALL'/ 
&OBST ID='Shack1_W2_BOTTOM', XB=-0.05,0.0,-0.05,3.0,0.0,0.6, BULK_DENSITY=128.64, SURF_ID='WOOD_WALL', DEVC_ID='TIMER->OUT'/ 
&OBST ID='Shack1_W3_TOP', XB=-0.05,3.0,3.0,3.05,1.5,2.3, BULK_DENSITY=128.64, SURF_ID='WOOD_WALL'/ 
&OBST ID='Shack1_W3_BOTTOM', XB=-0.05,3.0,3.0,3.05,0.0,0.6, BULK_DENSITY=128.64, SURF_ID='WOOD_WALL', DEVC_ID='TIMER->OUT'/ 
&OBST ID='Shack1_W4_TOP', XB=3.0,3.05,0.0,3.05,1.5,2.3, BULK_DENSITY=128.64, SURF_ID='WOOD_WALL'/ 
&OBST ID='Shack1_W4_BOTTOM', XB=3.0,3.05,0.0,3.05,0.0,0.6, BULK_DENSITY=128.64, SURF_ID='WOOD_WALL', DEVC_ID='TIMER->OUT'/ 
&OBST ID='Shack1_W1_MIDDLE', XB=0.0,3.05,-0.05,0.0,0.65,1.45, BULK_DENSITY=128.64, SURF_ID='WOOD_WALL', DEVC_ID='TIMER->OUT'/ 
&OBST ID='Shack1_W2_MIDDLE', XB=-0.05,0.0,-0.05,3.0,0.65,1.45, BULK_DENSITY=128.64, SURF_ID='WOOD_WALL', DEVC_ID='TIMER->OUT'/ 
&OBST ID='Shack1_W3_MIDDLE', XB=-0.05,3.0,3.0,3.05,0.65,1.45, BULK_DENSITY=128.64, SURF_ID='WOOD_WALL', DEVC_ID='TIMER->OUT'/ 
&OBST ID='Shack1_W4_MIDDLE', XB=3.0,3.05,0.0,3.05,0.65,1.45, BULK_DENSITY=128.64, SURF_ID='WOOD_WALL', DEVC_ID='TIMER->OUT'/ 
&OBST ID='Par wood 2-1', XB=1.05,1.52,0.7,0.75,0.3,0.35, THICKEN=.TRUE., BULK_DENSITY=515.0, SURF_ID='WOOD_PARAFFIN'/ 
&OBST ID='Par wood 2-1', XB=1.05,1.52,0.7,0.75,0.4,0.45, THICKEN=.TRUE., BULK_DENSITY=515.0, SURF_ID='WOOD_PARAFFIN'/ 
&OBST ID='Par wood 2-1', XB=1.05,1.52,0.7,0.75,0.2,0.25, THICKEN=.TRUE., BULK_DENSITY=515.0, SURF_ID='WOOD_PARAFFIN'/ 
&OBST ID='Par wood 2-2', XB=1.52,1.95,0.7,0.75,0.3,0.35, THICKEN=.TRUE., BULK_DENSITY=515.0, SURF_ID='WOOD'/ 
&OBST ID='Par wood 2-2', XB=1.52,1.95,0.7,0.75,0.4,0.45, THICKEN=.TRUE., BULK_DENSITY=515.0, SURF_ID='WOOD'/ 
&OBST ID='Par wood 2-2', XB=1.52,1.95,0.7,0.75,0.2,0.25, THICKEN=.TRUE., BULK_DENSITY=515.0, SURF_ID='WOOD'/ 

&HOLE ID='Shack1_H1W1', XB=0.64,1.5,-0.1,0.05,-5.0E-3,2.03, COLOR='INVISIBLE'/ 
&HOLE ID='Shack1_H2W4', XB=2.8,3.15,2.0,2.6,1.43,2.03, COLOR='INVISIBLE'/ 

&VENT ID='Mesh Vent: Mesh01 [XMAX]', SURF_ID='OPEN', XB=4.5,4.5,-1.5,3.5,0.0,3.0/ 
&VENT ID='Mesh Vent: Mesh01 [XMIN]', SURF_ID='OPEN', XB=-0.5,-0.5,-1.5,3.5,0.0,3.0/ 
&VENT ID='Mesh Vent: Mesh01 [YMAX]', SURF_ID='OPEN', XB=-0.5,4.5,3.5,3.5,0.0,3.0/ 
&VENT ID='Mesh Vent: Mesh01 [YMIN]', SURF_ID='OPEN', XB=-0.5,4.5,-1.5,-1.5,0.0,3.0/ 
&VENT ID='Mesh Vent: Mesh01 [ZMAX]', SURF_ID='OPEN', XB=-0.5,4.5,-1.5,3.5,3.0,3.0/ 
&VENT ID='Burner', SURF_ID='Ignitor', XB=1.15,1.25,0.35,0.45,0.15,0.15/ 

&SLCF QUANTITY='TEMPERATURE', PBX=1.1/
&SLCF QUANTITY='TEMPERATURE', PBY=2.4/
&SLCF QUANTITY='TEMPERATURE', PBY=0.038515/


&TAIL /
